12
	Energy:       6.0513309
H          1.21943       -0.16516        2.15996
C          0.68248       -0.09239        1.20875
C         -0.70744       -0.03519        1.19732
H         -1.26436       -0.06297        2.13935
C         -1.38982        0.05722       -0.01143
H         -2.48356        0.10214       -0.02044
C         -0.68242        0.09248       -1.20876
H         -1.21940        0.16520       -2.15990
C          0.70748        0.03523       -1.19730
H          1.26413        0.06285       -2.13946
C          1.38989       -0.05717        0.01143
H          2.48360       -0.10222        0.02049
