11
	Energy:      10.2906268
C          0.72249        0.65707        0.35277
C         -0.12380       -0.58415        0.21855
O          1.28906       -0.59669       -0.04204
C         -0.97564       -0.80565       -0.98497
O         -2.02466       -1.70863       -0.65766
H          0.94892        1.01561        1.34916
H          0.64649        1.43133       -0.39983
H         -0.48118       -1.07337        1.11422
H         -0.39477       -1.23267       -1.80895
H         -1.42811        0.13348       -1.31820
H         -2.48049       -1.92035       -1.48994
